LAMMPS (12 Feb 2014)
# sample LAMMPS input script for diffusion of 2d LJ liquid
# mean-squared displacement via compute msd

# settings

variable	x equal 40
variable	y equal 40

variable	rho equal 0.6
variable        t equal 1.0
variable	rc equal 2.5

# problem setup

units		lj
dimension	2
atom_style	atomic
neigh_modify	delay 0 every 1

lattice         sq2 0.6
Lattice spacing in x,y,z = 1.82574 1.82574 1.82574
region          simbox block 0 $x 0 $y -0.1 0.1
region          simbox block 0 40 0 $y -0.1 0.1
region          simbox block 0 40 0 40 -0.1 0.1
create_box      1 simbox
Created orthogonal box = (0 0 -0.182574) to (73.0297 73.0297 0.182574)
create_atoms    1 box
Created 3200 atoms

pair_style      lj/cut 2.5
pair_coeff      * * 1 1

mass            * 1.0
velocity        all create $t 97287
velocity        all create 1 97287

fix             1 all nve
fix	        2 all langevin $t $t 0.1 498094
fix	        2 all langevin 1 $t 0.1 498094
fix	        2 all langevin 1 1 0.1 498094
fix	        3 all enforce2d

# equilibration run

thermo          1000
run	        5000
Step Temp E_pair E_mol TotEng Press
0            1     -1.56492            0   -0.5652325   -1.5346995
Loop time of 0.548328 on 8 procs for 5000 steps with 3200 atoms

Pair  time (%) = 0.242437 (44.2139)
Neigh time (%) = 0.0589295 (10.7471)
Comm  time (%) = 0.0797399 (14.5424)
Outpt time (%) = 0.00014773 (0.0269419)
Other time (%) = 0.167074 (30.4697)

unfix		2

# data gathering run

reset_timestep  0

# factor of 4 in 2 variables is for 2d

compute         msd all msd com yes
variable        twopoint equal c_msd[4]/4/(step*dt+1.0e-6)
fix             9 all vector 10 c_msd[4]
variable        fitslope equal slope(f_9)/4/(10*dt)

thermo_style	custom step temp c_msd[4] v_twopoint v_fitslope

# only need to run for 10K steps to make a good 100-frame movie

#dump	        1 all custom 1 tmp.dump id type vx vy vz

#dump		2 all image 100 image.*.jpg type type zoom 1.6 adiam 1.2

thermo          1000
run	        100000
Step Temp msd[4] twopoint fitslope
0   0.97069909 5.6797985e-31 1.4199496e-25        5e+20
Averages over the last 51 of 101 rows, steps 50000 to 100000:
Temp msd[4] twopoint fitslope
0.982693 550.103 0.366744 0.357753
Loop time of 9.28795 on 8 procs for 100000 steps with 3200 atoms

Pair  time (%) = 4.87621 (52.5003)
Neigh time (%) = 1.26444 (13.6138)
Comm  time (%) = 1.60752 (17.3076)
Outpt time (%) = 0.00843725 (0.0908408)
Other time (%) = 1.53135 (16.4875)
