LAMMPS (12 Feb 2014)
# sample LAMMPS input script for diffusion of 2d LJ liquid
# mean-squared displacement via compute msd

# settings

variable	x equal 40
variable	y equal 40

variable	rho equal 0.6
variable        t equal 1.0
variable	rc equal 2.5

# problem setup

units		lj
dimension	2
atom_style	atomic
neigh_modify	delay 0 every 1

lattice         sq2 0.6
Lattice spacing in x,y,z = 1.82574 1.82574 1.82574
region          simbox block 0 $x 0 $y -0.1 0.1
region          simbox block 0 40 0 $y -0.1 0.1
region          simbox block 0 40 0 40 -0.1 0.1
create_box      1 simbox
Created orthogonal box = (0 0 -0.182574) to (73.0297 73.0297 0.182574)
create_atoms    1 box
Created 3200 atoms

pair_style      lj/cut 2.5
pair_coeff      * * 1 1

mass            * 1.0
velocity        all create $t 97287
velocity        all create 1 97287

fix             1 all nve
fix	        2 all langevin $t $t 0.1 498094
fix	        2 all langevin 1 $t 0.1 498094
fix	        2 all langevin 1 1 0.1 498094
fix	        3 all enforce2d

# equilibration run

thermo          1000
run	        5000
Step Temp E_pair E_mol TotEng Press
0            1     -1.56492            0   -0.5652325   -1.5346995
Loop time of 0.556362 on 8 procs for 5000 steps with 3200 atoms

Pair  time (%) = 0.242478 (43.5828)
Neigh time (%) = 0.0590148 (10.6073)
Comm  time (%) = 0.0862918 (15.51)
Outpt time (%) = 0.000148952 (0.0267725)
Other time (%) = 0.168428 (30.2731)

unfix		2

# data gathering run

reset_timestep  0

compute         vacf all vacf
fix             4 all ave/time 1 1 1 c_vacf[4] #file tmp.vacf

# factor of 0.5 is for 2d

fix             5 all vector 1 c_vacf[4]
variable        vacf equal 0.5*dt*trap(f_5)

thermo_style	custom step temp c_vacf[4] v_vacf

# only need to run for 10K steps to make a good 100-frame movie

#dump	        1 all custom 1 tmp.dump id type vx vy vz

#dump		2 all image 100 image.*.jpg type type zoom 1.6 adiam 1.2

thermo          1000
run	        100000
Step Temp vacf[4] vacf
0   0.97069909    1.9407915            0
Averages over the last 51 of 101 rows, steps 50000 to 100000:
Temp vacf[4] vacf
0.982693 0.00326953 0.312191
Loop time of 10.5771 on 8 procs for 100000 steps with 3200 atoms

Pair  time (%) = 4.88134 (46.1499)
Neigh time (%) = 1.2657 (11.9664)
Comm  time (%) = 1.78371 (16.8638)
Outpt time (%) = 0.0207323 (0.196011)
Other time (%) = 2.62565 (24.8239)
