LAMMPS (8 Jul 2015)
units real
boundary p p p

atom_style full
bond_style harmonic
angle_style harmonic
special_bonds lj/coul 0.0 0.0 0.5

pair_style lj/cut/coul/long 12.0 12.0
kspace_style pppm 1.0e-3

comm_modify vel yes
read_data data.swm4-ndp
  orthogonal box = (-12 -12 -12) to (12 12 12)
  reading atoms ...
  2500 atoms
  scanning bonds ...
  scanning angles ...
  reading bonds ...
  2000 bonds
  reading angles ...
  500 angles

pair_coeff    1    1      0.210939     3.183950  # ODw ODw
pair_coeff    *   2*      0.000000     0.0

group ATOMS type 1:3
2000 atoms in group ATOMS
group CORES type 1
500 atoms in group CORES
group DRUDES type 4
500 atoms in group DRUDES

variable TK equal 300.0
variable TDK equal 1.0
variable PBAR equal 1.0

neighbor 2.0 bin

timestep 1.0

fix DRUDE all drude C N N D

velocity ATOMS create 300 12345
velocity DRUDES create 1 12345

delete_bonds ATOMS multi
PPPM initialization ...
  G vector (1/distance) = 0.217457
  grid = 10 10 10
  stencil order = 5
  estimated absolute RMS force accuracy = 0.197288
  estimated relative force accuracy = 0.000594128
  3d grid and FFT values/proc = 3375 1000
Rebuild special list taking Drude particles into account
Old max number of 1-2 to 1-4 neighbors: 4
New max number of 1-2 to 1-4 neighbors: 4 (+0)
  1 neighbor list requests
  update every 1 steps, delay 10 steps, check yes
  2000 total bonds, 500 turned on, 1500 turned off
  500 total angles, 0 turned on, 500 turned off
  0 total dihedrals, 0 turned on, 0 turned off
  0 total impropers, 0 turned on, 0 turned off

fix TEMP all langevin/drude 300 100. 1256 1 20. 13977 zero yes
fix NPH ATOMS rigid/nph/small molecule iso 1 1 500.
500 rigid bodies with 2000 atoms
  0.832099 = max distance from body owner to body atom
fix NVE DRUDES nve

compute TEMP all temp/drude

thermo_style custom step cpu etotal ke pe ebond eangle evdwl ecoul elong press vol temp c_TEMP[1] c_TEMP[2]
thermo 20

run 2000
PPPM initialization ...
  G vector (1/distance) = 0.217457
  grid = 10 10 10
  stencil order = 5
  estimated absolute RMS force accuracy = 0.197288
  estimated relative force accuracy = 0.000594128
  3d grid and FFT values/proc = 3375 1000
Rebuild special list taking Drude particles into account
Old max number of 1-2 to 1-4 neighbors: 4
New max number of 1-2 to 1-4 neighbors: 4 (+0)
Step CPU TotEng KinEng PotEng E_bond E_angle E_vdwl E_coul E_long Press Volume Temp TEMP[1] TEMP[2]
0            0    4568.0415    903.41148      3664.63    623.46454            0    2890.2449    157955.66   -157804.74    244591.08        13824    202.18534    295.64644    14.858785
Averages over the last 51 of 101 rows, steps 1000 to 2000:
TotEng KinEng PotEng E_bond E_angle E_vdwl E_coul E_long Press Volume Temp TEMP[1] TEMP[2]
-3831.26 909.134 -4740.39 1496.35 0 1043.64 150666 -157946 13.1802 15467.6 203.466 304.022 1.9469
Loop time of 129.409 on 1 procs for 2000 steps with 2500 atoms

Pair  time (%) = 109.108 (84.3128)
Bond  time (%) = 0.0499372 (0.0385887)
Kspce time (%) = 3.30969 (2.55754)
Neigh time (%) = 9.70209 (7.49723)
Comm  time (%) = 0.829103 (0.640684)
Outpt time (%) = 0.00999022 (0.00771987)
Other time (%) = 6.39989 (4.94547)
