LAMMPS (1 Feb 2014)
# sample LAMMPS input script for viscosity of 2d LJ liquid
# Green-Kubo method via fix ave/correlate

# settings

variable	x equal 20
variable	y equal 20

variable	rho equal 0.6
variable        t equal 1.0
variable	rc equal 2.5

variable    p equal 400     # correlation length
variable    s equal 5       # sample interval
variable    d equal $p*$s   # dump interval
variable    d equal 400*$s
variable    d equal 400*5

# problem setup

units		lj
dimension	2
atom_style	atomic
neigh_modify	delay 0 every 1

lattice         sq2 0.6
Lattice spacing in x,y,z = 1.82574 1.82574 1.82574
region          simbox block 0 $x 0 $y -0.1 0.1
region          simbox block 0 20 0 $y -0.1 0.1
region          simbox block 0 20 0 20 -0.1 0.1
create_box      1 simbox
Created orthogonal box = (0 0 -0.182574) to (36.5148 36.5148 0.182574)
create_atoms    1 box
Created 800 atoms

pair_style      lj/cut 2.5
pair_coeff      * * 1 1

mass            * 1.0
velocity        all create $t 97287
velocity        all create 1 97287

# equilibration run

fix             1 all nve
fix	        2 all langevin $t $t 0.1 498094
fix	        2 all langevin 1 $t 0.1 498094
fix	        2 all langevin 1 1 0.1 498094
fix	        3 all enforce2d

thermo          $d
thermo          2000
run	        10000
Step Temp E_pair E_mol TotEng Press
0            1     -1.56492            0     -0.56617    -1.535262
Loop time of 1.72441 on 1 procs for 10000 steps with 800 atoms

Pair  time (%) = 0.929897 (53.9255)
Neigh time (%) = 0.203868 (11.8225)
Comm  time (%) = 0.0357857 (2.07524)
Outpt time (%) = 5.60284e-05 (0.00324913)
Other time (%) = 0.554805 (32.1736)

velocity	all scale $t
velocity	all scale 1

unfix		2

# Green-Kubo viscosity calculation

reset_timestep  0

variable         pxy equal pxy

fix              SS all ave/correlate $s $p $d                  v_pxy type auto file profile.gk.2d ave running
fix              SS all ave/correlate 5 $p $d                  v_pxy type auto file profile.gk.2d ave running
fix              SS all ave/correlate 5 400 $d                  v_pxy type auto file profile.gk.2d ave running
fix              SS all ave/correlate 5 400 2000                  v_pxy type auto file profile.gk.2d ave running

variable         scale equal 1.0/$t*vol*$s*dt
variable         scale equal 1.0/1*vol*$s*dt
variable         scale equal 1.0/1*vol*5*dt
variable         v11 equal trap(f_SS[3])*33.3333333333333

thermo_style     custom step temp press pxy v_v11

run              500000
Step Temp Press Pxy v11
0            1    1.1131139 -0.062970733  0.066088554
Averages over the last 126 of 251 rows, steps 250000 to 500000:
Temp Press Pxy v11
1.01404 1.01435 -0.0139397 1.02621
Loop time of 70.5579 on 1 procs for 500000 steps with 800 atoms

Pair  time (%) = 47.4863 (67.3012)
Neigh time (%) = 11.1177 (15.7568)
Comm  time (%) = 1.90226 (2.69603)
Outpt time (%) = 0.00377345 (0.00534802)
Other time (%) = 10.0479 (14.2406)

variable         eta equal v_v11
running average viscosity: 1.06060731864499
