LAMMPS (1 Feb 2014)
# sample LAMMPS input script for viscosity of 2d LJ liquid
# use shearing wall, thermostat via fix langevin

# settings

variable	x equal 20
variable	y equal 20
variable	ylo equal -2.5
variable	yhi equal 23

variable	rho equal 0.6
variable        t equal 1.0
variable	rc equal 2.5

variable	srate equal 2.7

# problem setup

units		lj
dimension	2
atom_style	atomic
neigh_modify	delay 0 every 1

lattice         sq2 0.6
Lattice spacing in x,y,z = 1.82574 1.82574 1.82574
region          simbox block 0 20 -2.5 23 -0.1 0.1
create_box      3 simbox
Created orthogonal box = (0 -4.56435 -0.182574) to (36.5148 41.9921 0.182574)
create_atoms    1 box
Created 1020 atoms

mass            * 1.0

pair_style      lj/cut 2.5
pair_coeff      * * 1 1

region		lower block INF INF INF 0.0 INF INF
region		upper block INF INF $y INF INF INF
region		upper block INF INF 20 INF INF INF
group		lower region lower
120 atoms in group lower
group		upper region upper
120 atoms in group upper
set		group lower type 2
  120 settings made for type
set		group upper type 3
  120 settings made for type
group		wall union lower upper
240 atoms in group wall
group		flow subtract all wall
780 atoms in group flow

velocity        flow create $t 97287
velocity        flow create 1 97287
velocity	upper set 2.7 0.0 0.0 units box

compute		thermal flow temp/partial 0 1 0
compute		flow flow temp

fix             1 all nve
fix	        2 flow langevin $t $t 0.1 498094
fix	        2 flow langevin 1 $t 0.1 498094
fix	        2 flow langevin 1 1 0.1 498094
fix_modify      2 temp thermal

fix		3 wall setforce 0.0 0.0 0.0
fix		4 flow ave/spatial 20 500 10000 y center 0.05 vx 		  units reduced file profile.wall.2d
fix	        5 all enforce2d

# equilibration run

variable        ybox equal $y*ylat
variable        ybox equal 20*ylat
compute		tilt flow temp/ramp vx 0 2.7 y 0 36.5148371670111 units box

thermo          1000
thermo_style	custom step temp c_tilt epair etotal press pxy

run	        20000
Step Temp tilt E_pair TotEng Press Pxy
0    1.1937193    2.1893943   -1.4419854  -0.24943634  -0.78936698  0.014349737
Averages over the last 11 of 21 rows, steps 10000 to 20000:
Temp tilt E_pair TotEng Press Pxy
1.78659 1.13507 -1.54744 0.237399 1.15779 0.0034275
Loop time of 4.58235 on 1 procs for 20000 steps with 1020 atoms

Pair  time (%) = 2.26221 (49.3678)
Neigh time (%) = 0.727145 (15.8684)
Comm  time (%) = 0.100413 (2.1913)
Outpt time (%) = 0.000513554 (0.0112072)
Other time (%) = 1.49207 (32.5613)

# data gathering run

variable	visc equal -pxy/(v_srate/ly)
fix		vave all ave/time 1000 1 1000 v_visc ave running

thermo_style	custom step temp pxy v_visc f_vave
thermo_modify	temp tilt

# only need to run for 5000 steps to make a good 100-frame movie

#dump	        1 all custom 50 dump.wall.2d id type x y z vx

#dump		1 all image 50 image.*.jpg vx type zoom 1.6 adiam 1.2

run		50000
Step Temp Pxy visc vave
20000    1.0646767   0.15189449   -2.6191346   -2.6191346
Averages over the last 26 of 51 rows, steps 45000 to 70000:
Temp Pxy visc vave
1.00543 -0.0685319 1.1817 0.560477
Loop time of 11.5341 on 1 procs for 50000 steps with 1020 atoms

Pair  time (%) = 5.65688 (49.0449)
Neigh time (%) = 1.88743 (16.3639)
Comm  time (%) = 0.253797 (2.20041)
Outpt time (%) = 0.00080061 (0.00694124)
Other time (%) = 3.73519 (32.3839)
