LAMMPS (1 Feb 2014)
# sample LAMMPS input script for viscosity of 2d LJ liquid
# NEMD via fix deform and fix nvt/sllod

# settings

variable	x equal 20
variable	y equal 20

variable	rho equal 0.6
variable        t equal 1.0
variable	rc equal 2.5

variable	srate equal 2.7

# problem setup

units		lj
dimension	2
atom_style	atomic
neigh_modify	delay 0 every 1

# problem setup

lattice         sq2 0.6
Lattice spacing in x,y,z = 1.82574 1.82574 1.82574
region          simbox prism 0 $y 0 $y -0.1 0.1 0.0 0.0 0.0
region          simbox prism 0 20 0 $y -0.1 0.1 0.0 0.0 0.0
region          simbox prism 0 20 0 20 -0.1 0.1 0.0 0.0 0.0
create_box      1 simbox
Created triclinic box = (0 0 -0.182574) to (36.5148 36.5148 0.182574) with tilt (0 0 0)
create_atoms    1 box
Created 800 atoms

pair_style      lj/cut 2.5
pair_coeff      * * 1 1

mass            * 1.0
velocity        all create $t 97287
velocity        all create 1 97287

fix             1 all nve
fix	        2 all langevin $t $t 0.1 498094
fix	        2 all langevin 1 $t 0.1 498094
fix	        2 all langevin 1 1 0.1 498094
fix	        3 all enforce2d

# equilibration run

thermo          1000
run	        5000
Step Temp E_pair E_mol TotEng Press
0            1     -1.56492            0     -0.56617    -1.535262
Loop time of 0.897984 on 1 procs for 5000 steps with 800 atoms

Pair  time (%) = 0.464335 (51.7087)
Neigh time (%) = 0.13359 (14.8767)
Comm  time (%) = 0.0208902 (2.32635)
Outpt time (%) = 5.31673e-05 (0.00592074)
Other time (%) = 0.279115 (31.0824)

unfix  	        1
unfix		2

# turn on NEMD shear and equilibrate some more

velocity	all scale $t
velocity	all scale 1

variable	xyrate equal 2.7/lx

fix		1 all nvt/sllod temp $t $t 0.1
fix		1 all nvt/sllod temp 1 $t 0.1
fix		1 all nvt/sllod temp 1 1 0.1
fix		2 all deform 1 xy erate 0.0739425452631974 remap v
fix		4 all ave/spatial 20 250 5000 y center 0.05 vx 		  units reduced file profile.nemd.2d

compute		usual all temp
compute		tilt all temp/deform

thermo          1000
thermo_style	custom step temp c_usual epair etotal press pxy
thermo_modify	temp tilt
run		50000
Step Temp usual E_pair TotEng Press Pxy
5000    2.2074694            1   -1.6087309   0.59597912    1.6684032  -0.13173614
Averages over the last 26 of 51 rows, steps 30000 to 55000:
Temp usual E_pair TotEng Press Pxy
1.0005 1.87859 -1.60131 -0.602061 0.996977 -0.0944793
Loop time of 11.8921 on 1 procs for 50000 steps with 800 atoms

Pair  time (%) = 4.938 (41.5235)
Neigh time (%) = 2.88697 (24.2764)
Comm  time (%) = 0.342039 (2.87619)
Outpt time (%) = 0.00175095 (0.0147236)
Other time (%) = 3.72331 (31.3092)

# data gathering run

variable	visc equal -pxy/(v_srate/ly)
fix		vave all ave/time 10 100 1000 v_visc ave running start 56000

thermo_style	custom step temp press pxy v_visc f_vave
thermo_modify	temp tilt

# only need to run for 5400 steps to make a good 100-frame movie
# set 54K steps above in equil and 5400 here simply to make good movie
# 54K and 5400 are multiples of box-swap periodicity = 2700 steps

#dump	        1 all custom 50 dump.nemd.2d id type x y z vx

#dump		1 all image 50 image.*.jpg vx type zoom 1.2 adiam 1.2

run		50000
Step Temp Press Pxy visc vave
55000   0.94998276    1.0303592 -0.063500962   0.85878789            0
Averages over the last 26 of 51 rows, steps 80000 to 105000:
Temp Press Pxy visc vave
0.992732 1.02004 -0.115912 1.5676 1.22392
Loop time of 12.3598 on 1 procs for 50000 steps with 800 atoms

Pair  time (%) = 5.02156 (40.6281)
Neigh time (%) = 3.14134 (25.4158)
Comm  time (%) = 0.36303 (2.93718)
Outpt time (%) = 0.00100946 (0.00816731)
Other time (%) = 3.83288 (31.0108)
