LAMMPS (15 Feb 2016)
# Tethered nanorods

atom_style	molecular

read_data	data.rigid.tnr
  orthogonal box = (-31.122 -31.122 -31.122) to (31.122 31.122 31.122)
  reading atoms ...
  5600 atoms
  scanning bonds ...
  reading bonds ...
  1600 bonds

# Specify bond parameters

bond_style	fene
bond_coeff	1 30.0 1.5 1.0 1.0

special_bonds	fene

# Specify initial velocities

velocity	all create 1.4 109345

# Specify rigid components

group		rods type 2
4000 atoms in group rods
group		tethers	subtract all rods
1600 atoms in group tethers

neigh_modify 	exclude	molecule rods delay 0 every 1

# Specify the pair potentials

pair_style	lj/cut	2.5
pair_modify	shift	yes
pair_coeff	* * 1.0	1.0 1.122
pair_coeff	2 2 1.0 1.0 2.5

# Specify output

thermo	100
thermo_style custom step temp pe etotal press enthalpy lx ly lz pxx pyy pzz
thermo_modify flush yes lost warn

timestep	0.005

fix	1	rods	rigid molecule
800 rigid bodies with 4000 atoms
fix	2	tethers	nve
fix	3	all	langevin 1.4 1.4 1.0 437624

run	5000
  1 neighbor list requests
  update every 1 steps, delay 0 steps, check yes
Step Temp PotEng TotEng Press Enthalpy Lx Ly Lz Pxx Pyy Pzz
0    1.3963219    5.9478449    7.0445809  0.048565317      9.13595       62.244       62.244       62.244 0.0091983659   0.11850113  0.017996458
Averages over the last 26 of 51 rows, steps 2500 to 5000:
Temp PotEng TotEng Press Enthalpy Lx Ly Lz Pxx Pyy Pzz
1.41363 5.91358 7.02391 0.00415867 7.203 62.244 62.244 62.244 0.00462327 0.00337568 0.00447706
Loop time of 6.61347 on 1 procs for 5000 steps with 5600 atoms

# Replace fix rigid and fix langevin with new ones

unfix	1
unfix	3

fix	3	tethers langevin 1.4 1.4 1.0 198450

# Test different integrators for rods

fix	1 rods	rigid/nve molecule
800 rigid bodies with 4000 atoms
print 	"rigid/nve"
rigid/nve
run	1000
Step Temp PotEng TotEng Press Enthalpy Lx Ly Lz Pxx Pyy Pzz
5000    1.4279632    5.9111567    7.0327453  0.027874409    8.2331015       62.244       62.244       62.244  0.018992956  0.039655696  0.024974575
Averages over the last 6 of 11 rows, steps 5500 to 6000:
Temp PotEng TotEng Press Enthalpy Lx Ly Lz Pxx Pyy Pzz
1.41475 5.88699 6.9982 0.00345692 7.14706 62.244 62.244 62.244 0.00230282 0.00381659 0.00425135
Loop time of 1.34998 on 1 procs for 1000 steps with 5600 atoms

unfix	1

fix	1 rods	rigid/nvt molecule temp 1.4 1.4 1.0
800 rigid bodies with 4000 atoms
print 	"rigid/nvt"
rigid/nvt
run	1000
Step Temp PotEng TotEng Press Enthalpy Lx Ly Lz Pxx Pyy Pzz
6000    1.4322772    5.8903539    7.0153309  0.012980585     7.574314       62.244       62.244       62.244  0.058317363 0.0073619377 -0.026737547
Averages over the last 6 of 11 rows, steps 6500 to 7000:
Temp PotEng TotEng Press Enthalpy Lx Ly Lz Pxx Pyy Pzz
1.39135 5.88873 6.98156 0.00390407 7.14968 62.244 62.244 62.244 0.0044232 0.00450735 0.00278167
Loop time of 1.36768 on 1 procs for 1000 steps with 5600 atoms

unfix	1

compute	myTemp all temp

fix	1 rods	rigid/npt molecule temp 1.4 1.4 1.0 iso 0.05 0.05 1.0         dilate all
800 rigid bodies with 4000 atoms
print 	"rigid/npt iso"
rigid/npt iso
fix_modify 1 temp myTemp

run	1000
Step Temp PotEng TotEng Press Enthalpy Lx Ly Lz Pxx Pyy Pzz
7000    1.4286618    5.8935692    7.0157065  0.032107544    8.3983542       62.244       62.244       62.244 0.0040119822  0.040455544  0.051855105
Averages over the last 6 of 11 rows, steps 7500 to 8000:
Temp PotEng TotEng Press Enthalpy Lx Ly Lz Pxx Pyy Pzz
1.52411 5.61077 6.80787 0.0462214 7.14081 34.6815 34.6815 34.6815 0.0415472 0.0387493 0.0583676
Loop time of 3.01539 on 1 procs for 1000 steps with 5600 atoms

unfix	1

fix	1 rods	rigid/npt molecule temp 1.4 1.4 1.0 x 0.05 0.05 1.0 dilate all
800 rigid bodies with 4000 atoms
print 	"rigid/npt x"
rigid/npt x
run	1000
Step Temp PotEng TotEng Press Enthalpy Lx Ly Lz Pxx Pyy Pzz
8000    1.4805391    5.5132684    6.6761526   0.10591497    7.2961342    32.003919    32.003919    32.003919 -0.0085253101   0.12196602   0.20430422
Averages over the last 6 of 11 rows, steps 8500 to 9000:
Temp PotEng TotEng Press Enthalpy Lx Ly Lz Pxx Pyy Pzz
1.42701 5.41508 6.53592 0.0303377 6.6962 28.8418 32.0039 32.0039 0.0605227 0.0101488 0.0203415
Loop time of 3.0303 on 1 procs for 1000 steps with 5600 atoms

unfix	1

fix	1 rods	rigid/nph molecule iso 0.05 0.05 1.0 dilate all
800 rigid bodies with 4000 atoms
print 	"rigid/nph iso"
rigid/nph iso
run	1000
Step Temp PotEng TotEng Press Enthalpy Lx Ly Lz Pxx Pyy Pzz
9000      1.41963    5.3772308    6.4922741  0.054032922    6.7669508    27.793622    32.003919    32.003919   0.36183473   -0.1011685 -0.098567468
Averages over the last 6 of 11 rows, steps 9500 to 10000:
Temp PotEng TotEng Press Enthalpy Lx Ly Lz Pxx Pyy Pzz
1.45415 5.24874 6.3909 0.0463198 6.59076 26.3182 30.3049 30.3049 0.0315096 0.0537306 0.0537191
Loop time of 3.1675 on 1 procs for 1000 steps with 5600 atoms

unfix	1

fix	1 rods	rigid/nph molecule x 0.05 0.05 1.0 y 0.05 0.05 1.0         couple xy dilate all
800 rigid bodies with 4000 atoms
print 	"rigid/nph xy couple"
rigid/nph xy couple
run	1000
Step Temp PotEng TotEng Press Enthalpy Lx Ly Lz Pxx Pyy Pzz
10000    1.4445828    5.2098073    6.3444498  0.001962567    6.3525526    25.931556    29.859779    29.859779   0.18484796  -0.22902272  0.050062455
Averages over the last 6 of 11 rows, steps 10500 to 11000:
Temp PotEng TotEng Press Enthalpy Lx Ly Lz Pxx Pyy Pzz
1.43788 5.18001 6.30939 0.0640645 6.57887 26.1951 30.1632 29.8598 0.097397 0.0455178 0.0492786
Loop time of 3.24668 on 1 procs for 1000 steps with 5600 atoms
