LAMMPS (5 Mar 2015)
# Testsystem for core-shell model compared to Mitchel and Finchham
# Hendrik Heenen, June 2014

# ------------------------ INITIALIZATION ----------------------------

units 		metal
dimension	3
boundary	p	p	p
atom_style	full

# ----------------------- ATOM DEFINITION ----------------------------

fix csinfo all property/atom i_CSID
read_data data.coreshell fix csinfo NULL CS-Info
  orthogonal box = (0 0 0) to (24.096 24.096 24.096)
  reading atoms ...
  432 atoms
  scanning bonds ...
  reading bonds ...
  216 bonds

group cores type 1 2
216 atoms in group cores
group shells type 3 4
216 atoms in group shells

neighbor 2.0 bin
comm_modify vel yes

# ------------------------ FORCE FIELDS ------------------------------

kspace_style ewald 1.0e-6
pair_style   born/coul/long/cs 20.0 20.0    # A, rho, sigma=0, C, D
pair_coeff   * *      0.0 1.000   0.00  0.00   0.00
pair_coeff   3 3    487.0 0.23768 0.00  1.05   0.50 #Na-Na
pair_coeff   3 4 145134.0 0.23768 0.00  6.99   8.70 #Na-Cl
pair_coeff   4 4 405774.0 0.23768 0.00 72.40 145.40 #Cl-Cl

bond_style harmonic
bond_coeff 1 63.014 0.0
bond_coeff 2 25.724 0.0

# ------------------------ Equilibration Run -------------------------------

reset_timestep 0

thermo 50
thermo_style custom step etotal pe ke temp press              epair evdwl ecoul elong ebond fnorm fmax vol

compute CSequ all temp/cs cores shells

# output via chunk method

#compute prop all property/atom i_CSID
#compute cs_chunk all chunk/atom c_prop
#compute cstherm all temp/chunk cs_chunk temp internal com yes cdof 3.0
#fix ave_chunk all ave/time 100 1 100 c_cstherm file chunk.dump mode vector

thermo_modify temp CSequ

# velocity bias option

velocity all create 1427 134 dist gaussian mom yes rot no bias yes temp CSequ
Ewald initialization ...
  G vector (1/distance) = 0.175257
  estimated absolute RMS force accuracy = 1.49563e-05
  estimated relative force accuracy = 1.03866e-06
  KSpace vectors: actual max1d max3d = 257 5 665
                  kxmax kymax kzmax  = 5 5 5
  1 neighbor list requests
  update every 1 steps, delay 10 steps, check yes
velocity all scale 1427 temp CSequ

fix thermoberendsen all temp/berendsen 1427 1427 0.4
fix nve all nve
fix_modify thermoberendsen temp CSequ

# 2 fmsec timestep

timestep 0.002
run 500
Ewald initialization ...
  G vector (1/distance) = 0.175257
  estimated absolute RMS force accuracy = 1.49563e-05
  estimated relative force accuracy = 1.03866e-06
  KSpace vectors: actual max1d max3d = 257 5 665
                  kxmax kymax kzmax  = 5 5 5
Step TotEng PotEng KinEng Temp Press E_pair E_vdwl E_coul E_long E_bond Fnorm Fmax Volume
0   -628.35255    -668.0717    39.719144         1427   -20608.918    -668.0717    1.6320365    1025.8481   -1695.5518            0 3.4602128e-14 4.1910919e-15      13990.5
Loop time of 8.51483 on 1 procs for 500 steps with 432 atoms

Pair  time (%) = 7.73226 (90.8093)
Bond  time (%) = 0.00232315 (0.0272836)
Kspce time (%) = 0.518208 (6.08594)
Neigh time (%) = 0.17925 (2.10514)
Comm  time (%) = 0.0653358 (0.767317)
Outpt time (%) = 0.000309229 (0.00363165)
Other time (%) = 0.0171449 (0.201354)

unfix thermoberendsen

# ------------------------ Dynamic Run -------------------------------

run 1000
Ewald initialization ...
  G vector (1/distance) = 0.175257
  estimated absolute RMS force accuracy = 1.49563e-05
  estimated relative force accuracy = 1.03866e-06
  KSpace vectors: actual max1d max3d = 257 5 665
                  kxmax kymax kzmax  = 5 5 5
Step TotEng PotEng KinEng Temp Press E_pair E_vdwl E_coul E_long E_bond Fnorm Fmax Volume
500   -622.34231   -660.50992    38.167608    1371.2576   -1301.9479   -664.26607    41.813817    988.57955   -1694.6594    3.7561473    23.595051     5.844275      13990.5
Averages over the last 11 of 21 rows, steps 1000 to 1500:
TotEng PotEng KinEng Temp Press E_pair E_vdwl E_coul E_long E_bond Fnorm Fmax Volume
-621.891 -659.122 37.2308 1337.6 -220.543 -663.332 44.4888 986.768 -1694.59 4.20952 28.2011 9.38937 13990.5
Loop time of 17.041 on 1 procs for 1000 steps with 432 atoms

Pair  time (%) = 15.4577 (90.7085)
Bond  time (%) = 0.00465488 (0.0273157)
Kspce time (%) = 1.03763 (6.08902)
Neigh time (%) = 0.390329 (2.29052)
Comm  time (%) = 0.131336 (0.770706)
Outpt time (%) = 0.000611782 (0.00359005)
Other time (%) = 0.0188062 (0.110358)
