LAMMPS (1 Feb 2014)
# sample LAMMPS input script for thermal conductivity of liquid LJ
# Muller-Plathe method via fix thermal_conductivity

# settings

variable	x equal 10
variable	y equal 10
variable	z equal 20

variable	rho equal 0.6
variable        t equal 1.35
variable	rc equal 2.5

#variable	rho equal 0.85
#variable        t equal 0.7
#variable	rc equal 3.0

# setup problem

units		lj
atom_style	atomic

lattice		fcc 0.6
Lattice spacing in x,y,z = 1.88207 1.88207 1.88207
region		box block 0 $x 0 $y 0 $z
region		box block 0 10 0 $y 0 $z
region		box block 0 10 0 10 0 $z
region		box block 0 10 0 10 0 20
create_box	1 box
Created orthogonal box = (0 0 0) to (18.8207 18.8207 37.6414)
create_atoms	1 box
Created 8000 atoms
mass		1 1.0

velocity	all create $t 87287
velocity	all create 1.35 87287

pair_style	lj/cut 2.5
pair_coeff	1 1 1.0 1.0

neighbor	0.3 bin
neigh_modify	delay 0 every 1

# 1st equilibration run

fix		1 all nvt temp $t $t 0.5
fix		1 all nvt temp 1.35 $t 0.5
fix		1 all nvt temp 1.35 1.35 0.5
thermo		100
run		1000
Step Temp E_pair E_mol TotEng Press
0         1.35   -4.1241917            0   -2.0994448   -3.1961612
Averages over the last 6 of 11 rows, steps 500 to 1000:
Temp E_pair E_mol TotEng Press
1.35275 -3.70205 0 -1.67318 0.863349
Loop time of 0.862547 on 8 procs for 1000 steps with 8000 atoms

Pair  time (%) = 0.478427 (55.4668)
Neigh time (%) = 0.220096 (25.517)
Comm  time (%) = 0.10999 (12.7517)
Outpt time (%) = 0.00030601 (0.0354775)
Other time (%) = 0.0537277 (6.22896)

velocity	all scale $t
velocity	all scale 1.35

unfix		1

# 2nd equilibration run

compute		ke all ke/atom
variable	temp atom c_ke/1.5

fix		1 all nve
fix		2 all ave/spatial 10 100 1000 z lower 0.05 v_temp 		  file profile.mp units reduced
fix		3 all thermal/conductivity 10 z 20

variable        tdiff equal f_2[11][3]-f_2[1][3]
thermo_style	custom step temp epair etotal f_3 v_tdiff

thermo		1000
run		20000
Step Temp E_pair TotEng 3 tdiff
1000         1.35   -3.7100024   -1.6852556            0            0
Averages over the last 11 of 21 rows, steps 11000 to 21000:
Temp E_pair TotEng 3 tdiff
1.40836 -3.8071 -1.69482 11941.7 1.15488
Loop time of 20.7938 on 8 procs for 20000 steps with 8000 atoms

Pair  time (%) = 9.73079 (46.7967)
Neigh time (%) = 4.8843 (23.4893)
Comm  time (%) = 5.15718 (24.8016)
Outpt time (%) = 0.000606179 (0.0029152)
Other time (%) = 1.02088 (4.90955)

# thermal conductivity calculation
# reset fix thermal/conductivity to zero energy accumulation

fix		3 all thermal/conductivity 10 z 20

fix             ave all ave/time 1 1 1000 v_tdiff ave running
thermo_style	custom step temp epair etotal f_3 v_tdiff f_ave

run		20000
Step Temp E_pair TotEng 3 tdiff ave
21000    1.4068217   -3.8054214   -1.6954526            0     1.147926     1.147926
Averages over the last 11 of 21 rows, steps 31000 to 41000:
Temp E_pair TotEng 3 tdiff ave
1.41491 -3.8179 -1.69579 11311 1.16618 1.15799
Loop time of 21.9152 on 8 procs for 20000 steps with 8000 atoms

Pair  time (%) = 9.77976 (44.6255)
Neigh time (%) = 5.01423 (22.8802)
Comm  time (%) = 6.03064 (27.5181)
Outpt time (%) = 0.000575513 (0.00262609)
Other time (%) = 1.08999 (4.97365)
