LAMMPS (1 Feb 2014)
# sample LAMMPS input script for thermal conductivity of liquid LJ
# Green-Kubo method via compute heat/flux and fix ave/correlate

# settings

variable	x equal 10
variable	y equal 10
variable	z equal 10

variable	rho equal 0.6
variable        t equal 1.35
variable	rc equal 2.5

#variable	rho equal 0.85
#variable        t equal 0.7
#variable	rc equal 3.0

variable    p equal 200     # correlation length
variable    s equal 10      # sample interval
variable    d equal $p*$s   # dump interval
variable    d equal 200*$s
variable    d equal 200*10

# setup problem

units		lj
atom_style	atomic

lattice		fcc 0.6
Lattice spacing in x,y,z = 1.88207 1.88207 1.88207
region		box block 0 $x 0 $y 0 $z
region		box block 0 10 0 $y 0 $z
region		box block 0 10 0 10 0 $z
region		box block 0 10 0 10 0 10
create_box	1 box
Created orthogonal box = (0 0 0) to (18.8207 18.8207 18.8207)
create_atoms	1 box
Created 4000 atoms
mass		1 1.0

velocity	all create $t 87287
velocity	all create 1.35 87287

pair_style	lj/cut 2.5
pair_coeff	1 1 1.0 1.0

neighbor	0.3 bin
neigh_modify	delay 0 every 1

# 1st equilibration run

fix		1 all nvt temp $t $t 0.5
fix		1 all nvt temp 1.35 $t 0.5
fix		1 all nvt temp 1.35 1.35 0.5
thermo		100
run		1000
Step Temp E_pair E_mol TotEng Press
0         1.35   -4.1241917            0   -2.0996979   -3.1962625
Averages over the last 6 of 11 rows, steps 500 to 1000:
Temp E_pair E_mol TotEng Press
1.35059 -3.70333 0 -1.67795 0.860256
Loop time of 0.464189 on 8 procs for 1000 steps with 4000 atoms

Pair  time (%) = 0.235336 (50.6983)
Neigh time (%) = 0.104871 (22.5922)
Comm  time (%) = 0.0896717 (19.3179)
Outpt time (%) = 0.000278324 (0.0599591)
Other time (%) = 0.0340324 (7.33158)

velocity	all scale $t
velocity	all scale 1.35

unfix		1

# thermal conductivity calculation

reset_timestep  0

compute         myKE all ke/atom
compute         myPE all pe/atom
compute         myStress all stress/atom virial
compute         flux all heat/flux myKE myPE myStress
variable        Jx equal c_flux[1]/vol
variable        Jy equal c_flux[2]/vol
variable        Jz equal c_flux[3]/vol

fix	        1 all nve
fix             JJ all ave/correlate $s $p $d                 c_flux[1] c_flux[2] c_flux[3] type auto 	        file profile.heatflux ave running
fix             JJ all ave/correlate 10 $p $d                 c_flux[1] c_flux[2] c_flux[3] type auto 	        file profile.heatflux ave running
fix             JJ all ave/correlate 10 200 $d                 c_flux[1] c_flux[2] c_flux[3] type auto 	        file profile.heatflux ave running
fix             JJ all ave/correlate 10 200 2000                 c_flux[1] c_flux[2] c_flux[3] type auto 	        file profile.heatflux ave running

variable        scale equal $s*dt/$t/$t/vol
variable        scale equal 10*dt/$t/$t/vol
variable        scale equal 10*dt/1.35/$t/vol
variable        scale equal 10*dt/1.35/1.35/vol
variable        k11 equal trap(f_JJ[3])*4.11522633744856e-06
variable        k22 equal trap(f_JJ[4])*4.11522633744856e-06
variable        k33 equal trap(f_JJ[5])*4.11522633744856e-06

thermo	        $d
thermo	        2000
thermo_style    custom step temp v_Jx v_Jy v_Jz v_k11 v_k22 v_k33

run             100000
Step Temp Jx Jy Jz k11 k22 k33
0         1.35  0.012562011 -0.087289131 -0.037038204  0.014431103   0.69678942     0.125453
Averages over the last 26 of 51 rows, steps 50000 to 100000:
Temp Jx Jy Jz k11 k22 k33
1.35018 0.027265 -0.0241903 0.0373351 4.07065 3.42998 4.69335
Loop time of 49.3099 on 8 procs for 100000 steps with 4000 atoms

Pair  time (%) = 26.5664 (53.8764)
Neigh time (%) = 10.8228 (21.9485)
Comm  time (%) = 8.59585 (17.4323)
Outpt time (%) = 0.0256916 (0.0521023)
Other time (%) = 3.29916 (6.69066)

variable        kappa equal (v_k11+v_k22+v_k33)/3.0
running average conductivity: 3.77824951481468
