LAMMPS (1 Feb 2014)
# sample LAMMPS input script for thermal conductivity of liquid LJ
# thermostatting 2 regions via fix langevin

# settings

variable	x equal 10
variable	y equal 10
variable	z equal 20

variable	rho equal 0.6
variable        t equal 1.35
variable	rc equal 2.5
variable        tlo equal 1.0
variable        thi equal 1.70

#variable	rho equal 0.85
#variable        t equal 0.7
#variable	rc equal 3.0
#variable        tlo equal 0.3
#variable        thi equal 1.0

# setup problem

units		lj
atom_style	atomic

lattice		fcc 0.6
Lattice spacing in x,y,z = 1.88207 1.88207 1.88207
region		box block 0 $x 0 $y 0 $z
region		box block 0 10 0 $y 0 $z
region		box block 0 10 0 10 0 $z
region		box block 0 10 0 10 0 20
create_box	1 box
Created orthogonal box = (0 0 0) to (18.8207 18.8207 37.6414)
create_atoms	1 box
Created 8000 atoms
mass		1 1.0

velocity	all create $t 87287
velocity	all create 1.35 87287

pair_style	lj/cut 2.5
pair_coeff	1 1 1.0 1.0

neighbor	0.3 bin
neigh_modify	delay 0 every 1

# heat layers

region          hot block INF INF INF INF 0 1
region          cold block  INF INF INF INF 10 11
compute         Thot all temp/region hot
compute         Tcold all temp/region cold

# 1st equilibration run

fix             1 all nvt temp $t $t 0.5
fix             1 all nvt temp 1.35 $t 0.5
fix             1 all nvt temp 1.35 1.35 0.5
thermo	        100
run             1000
Step Temp E_pair E_mol TotEng Press
0         1.35   -4.1241917            0   -2.0994448   -3.1961612
Averages over the last 6 of 11 rows, steps 500 to 1000:
Temp E_pair E_mol TotEng Press
1.35275 -3.70205 0 -1.67318 0.863349
Loop time of 0.862126 on 8 procs for 1000 steps with 8000 atoms

Pair  time (%) = 0.482831 (56.0047)
Neigh time (%) = 0.221903 (25.739)
Comm  time (%) = 0.104307 (12.0989)
Outpt time (%) = 0.000301003 (0.0349141)
Other time (%) = 0.0527841 (6.12256)

velocity	all scale $t
velocity	all scale 1.35

unfix		1

# 2nd equilibration run

fix		1 all nve
fix             hot all langevin 1.7 1.7 1.0 59804 tally yes
fix             cold all langevin 1 1 1.0 287859 tally yes
fix_modify      hot temp Thot
fix_modify      cold temp Tcold

variable        tdiff equal c_Thot-c_Tcold
thermo_style    custom step temp c_Thot c_Tcold f_hot f_cold v_tdiff
thermo	        1000
run             10000
Step Temp Thot Tcold hot cold tdiff
1000         1.35    1.4312938    1.2955632            0            0   0.13573057
Averages over the last 6 of 11 rows, steps 6000 to 11000:
Temp Thot Tcold hot cold tdiff
1.2994 1.61102 1.04078 -0.495847 0.63582 0.570235
Loop time of 11.3468 on 8 procs for 10000 steps with 8000 atoms

Pair  time (%) = 4.81454 (42.4309)
Neigh time (%) = 2.27955 (20.0899)
Comm  time (%) = 1.88988 (16.6557)
Outpt time (%) = 0.000712395 (0.00627838)
Other time (%) = 2.36209 (20.8173)

# thermal conductivity calculation
# reset langevin thermostats to zero energy accumulation

compute		ke all ke/atom
variable	temp atom c_ke/1.5

fix             hot all langevin 1.7 1.7 1.0 59804 tally yes
fix             cold all langevin 1 1 1.0 287859 tally yes
fix_modify      hot temp Thot
fix_modify      cold temp Tcold

fix             ave all ave/time 10 100 1000 v_tdiff ave running
thermo_style    custom step temp c_Thot c_Tcold f_hot f_cold v_tdiff f_ave

fix		2 all ave/spatial 10 100 1000 z lower 0.05 v_temp 		  file profile.langevin units reduced

run             20000
Step Temp Thot Tcold hot cold tdiff ave
11000    1.2973176    1.6350179    1.0433547            0            0   0.59166313            0
Averages over the last 11 of 21 rows, steps 21000 to 31000:
Temp Thot Tcold hot cold tdiff ave
1.27974 1.592 1.04756 -0.671473 0.725831 0.544445 0.573133
Loop time of 23.7017 on 8 procs for 20000 steps with 8000 atoms

Pair  time (%) = 9.6584 (40.7498)
Neigh time (%) = 4.57821 (19.3159)
Comm  time (%) = 4.45101 (18.7793)
Outpt time (%) = 0.00194073 (0.00818813)
Other time (%) = 5.01215 (21.1468)
